[root]
type=Root
children=system
cache_component=false
eventq_index=0
full_system=false
micro_component=false
sim_quantum=0
time_sync_enable=false
time_sync_period=100000000000
time_sync_spin_threshold=100000000

[system]
type=System
children=clk_domain cpu cpu_clk_domain cpu_voltage_domain dvfs_handler mem_ctrls ruby sys_port_proxy voltage_domain
boot_osflags=a
cache_component=false
cache_line_size=64
clk_domain=system.clk_domain
default_p_state=UNDEFINED
eventq_index=0
exit_on_work_items=false
init_param=0
kernel=
kernel_addr_check=true
kernel_extras=
kvm_vm=Null
load_addr_mask=18446744073709551615
load_offset=0
mem_mode=timing
mem_ranges=0:536870911:0:0:0:0
memories=system.mem_ctrls
micro_component=false
mmap_using_noreserve=false
multi_thread=false
num_work_ids=16
p_state_clk_gate_bins=20
p_state_clk_gate_max=1000000000000
p_state_clk_gate_min=1000
power_model=
readfile=
symbolfile=
thermal_components=
thermal_model=Null
work_begin_ckpt_count=0
work_begin_cpu_id_exit=-1
work_begin_exit_count=0
work_cpus_ckpt_count=0
work_end_ckpt_count=0
work_end_exit_count=0
work_item_id=-1
system_port=system.sys_port_proxy.slave[0]

[system.clk_domain]
type=SrcClockDomain
cache_component=false
clock=1000
domain_id=-1
eventq_index=0
init_perf_level=0
micro_component=false
voltage_domain=system.voltage_domain

[system.cpu]
type=DerivO3CPU
children=apic_clk_domain branchPred dtb fuPool interrupts isa itb tracer workload
LFSTSize=1024
LQEntries=32
LSQCheckLoads=true
LSQDepCheckShift=4
SQEntries=32
SSITSize=1024
activity=0
allowSpecBuffHit=false
backComSize=5
branchPred=system.cpu.branchPred
cacheStorePorts=200
cacheValidationPorts=200
cache_component=false
checker=Null
clk_domain=system.cpu_clk_domain
commitToDecodeDelay=1
commitToFetchDelay=1
commitToIEWDelay=1
commitToRenameDelay=1
commitWidth=8
cpu_id=0
decodeToFetchDelay=1
decodeToRenameDelay=1
decodeWidth=8
default_p_state=UNDEFINED
dispatchWidth=8
do_checkpoint_insts=true
do_quiesce=true
do_statistics_insts=true
dtb=system.cpu.dtb
eventq_index=0
fetchBufferSize=64
fetchQueueSize=32
fetchToDecodeDelay=1
fetchTrapLatency=1
fetchWidth=8
forwardComSize=5
fuPool=system.cpu.fuPool
function_trace=false
function_trace_start=0
iewToCommitDelay=1
iewToDecodeDelay=1
iewToFetchDelay=1
iewToRenameDelay=1
interrupts=system.cpu.interrupts
isa=system.cpu.isa
issueToExecuteDelay=1
issueWidth=8
itb=system.cpu.itb
max_insts_all_threads=0
max_insts_any_thread=0
max_loads_all_threads=0
max_loads_any_thread=0
micro_component=false
needsTSO=false
numIQEntries=64
numPhysCCRegs=1280
numPhysFloatRegs=256
numPhysIntRegs=256
numPhysVecRegs=256
numROBEntries=192
numRobs=1
numThreads=1
p_state_clk_gate_bins=20
p_state_clk_gate_max=1000000000000
p_state_clk_gate_min=1000
power_gating_on_idle=false
power_model=
profile=0
progress_interval=0
pwr_gating_latency=300
renameToDecodeDelay=1
renameToFetchDelay=1
renameToIEWDelay=2
renameToROBDelay=1
renameWidth=8
simpoint_start_insts=
simulateScheme=SpectreSafeInvisibleSpec
smtCommitPolicy=RoundRobin
smtFetchPolicy=SingleThread
smtIQPolicy=Partitioned
smtIQThreshold=100
smtLSQPolicy=Partitioned
smtLSQThreshold=100
smtNumFetchingThreads=1
smtROBPolicy=Partitioned
smtROBThreshold=100
socket_id=0
squashWidth=8
store_set_clear_period=250000
switched_out=false
syscallRetryLatency=10000
system=system
tracer=system.cpu.tracer
trapLatency=13
wait_for_remote_gdb=false
wbWidth=8
workload=system.cpu.workload
dcache_port=system.ruby.l1_cntrl0.sequencer.slave[1]
icache_port=system.ruby.l1_cntrl0.sequencer.slave[0]

[system.cpu.apic_clk_domain]
type=DerivedClockDomain
cache_component=false
clk_divider=16
clk_domain=system.cpu_clk_domain
eventq_index=0
micro_component=false

[system.cpu.branchPred]
type=TournamentBP
BTBEntries=4096
BTBTagSize=16
RASSize=16
cache_component=false
choiceCtrBits=2
choicePredictorSize=8192
eventq_index=0
globalCtrBits=2
globalPredictorSize=8192
indirectHashGHR=true
indirectHashTargets=true
indirectPathLength=3
indirectSets=256
indirectTagSize=16
indirectWays=2
instShiftAmt=2
localCtrBits=2
localHistoryTableSize=2048
localPredictorSize=2048
micro_component=true
numThreads=1
useIndirect=true

[system.cpu.dtb]
type=X86TLB
children=walker
cache_component=false
eventq_index=0
micro_component=false
size=64
walker=system.cpu.dtb.walker

[system.cpu.dtb.walker]
type=X86PagetableWalker
cache_component=false
clk_domain=system.cpu_clk_domain
default_p_state=UNDEFINED
eventq_index=0
micro_component=false
num_squash_per_cycle=4
p_state_clk_gate_bins=20
p_state_clk_gate_max=1000000000000
p_state_clk_gate_min=1000
power_model=
system=system
port=system.ruby.l1_cntrl0.sequencer.slave[4]

[system.cpu.fuPool]
type=FUPool
children=FUList0 FUList1 FUList2 FUList3 FUList4 FUList5 FUList6 FUList7 FUList8
FUList=system.cpu.fuPool.FUList0 system.cpu.fuPool.FUList1 system.cpu.fuPool.FUList2 system.cpu.fuPool.FUList3 system.cpu.fuPool.FUList4 system.cpu.fuPool.FUList5 system.cpu.fuPool.FUList6 system.cpu.fuPool.FUList7 system.cpu.fuPool.FUList8
cache_component=false
eventq_index=0
micro_component=false

[system.cpu.fuPool.FUList0]
type=FUDesc
children=opList
cache_component=false
count=6
eventq_index=0
micro_component=false
opList=system.cpu.fuPool.FUList0.opList

[system.cpu.fuPool.FUList0.opList]
type=OpDesc
cache_component=false
eventq_index=0
micro_component=false
opClass=IntAlu
opLat=1
pipelined=true

[system.cpu.fuPool.FUList1]
type=FUDesc
children=opList0 opList1
cache_component=false
count=2
eventq_index=0
micro_component=false
opList=system.cpu.fuPool.FUList1.opList0 system.cpu.fuPool.FUList1.opList1

[system.cpu.fuPool.FUList1.opList0]
type=OpDesc
cache_component=false
eventq_index=0
micro_component=false
opClass=IntMult
opLat=3
pipelined=true

[system.cpu.fuPool.FUList1.opList1]
type=OpDesc
cache_component=false
eventq_index=0
micro_component=false
opClass=IntDiv
opLat=1
pipelined=false

[system.cpu.fuPool.FUList2]
type=FUDesc
children=opList0 opList1 opList2
cache_component=false
count=4
eventq_index=0
micro_component=false
opList=system.cpu.fuPool.FUList2.opList0 system.cpu.fuPool.FUList2.opList1 system.cpu.fuPool.FUList2.opList2

[system.cpu.fuPool.FUList2.opList0]
type=OpDesc
cache_component=false
eventq_index=0
micro_component=false
opClass=FloatAdd
opLat=2
pipelined=true

[system.cpu.fuPool.FUList2.opList1]
type=OpDesc
cache_component=false
eventq_index=0
micro_component=false
opClass=FloatCmp
opLat=2
pipelined=true

[system.cpu.fuPool.FUList2.opList2]
type=OpDesc
cache_component=false
eventq_index=0
micro_component=false
opClass=FloatCvt
opLat=2
pipelined=true

[system.cpu.fuPool.FUList3]
type=FUDesc
children=opList0 opList1 opList2 opList3 opList4
cache_component=false
count=2
eventq_index=0
micro_component=false
opList=system.cpu.fuPool.FUList3.opList0 system.cpu.fuPool.FUList3.opList1 system.cpu.fuPool.FUList3.opList2 system.cpu.fuPool.FUList3.opList3 system.cpu.fuPool.FUList3.opList4

[system.cpu.fuPool.FUList3.opList0]
type=OpDesc
cache_component=false
eventq_index=0
micro_component=false
opClass=FloatMult
opLat=4
pipelined=true

[system.cpu.fuPool.FUList3.opList1]
type=OpDesc
cache_component=false
eventq_index=0
micro_component=false
opClass=FloatMultAcc
opLat=5
pipelined=true

[system.cpu.fuPool.FUList3.opList2]
type=OpDesc
cache_component=false
eventq_index=0
micro_component=false
opClass=FloatMisc
opLat=3
pipelined=true

[system.cpu.fuPool.FUList3.opList3]
type=OpDesc
cache_component=false
eventq_index=0
micro_component=false
opClass=FloatDiv
opLat=12
pipelined=false

[system.cpu.fuPool.FUList3.opList4]
type=OpDesc
cache_component=false
eventq_index=0
micro_component=false
opClass=FloatSqrt
opLat=24
pipelined=false

[system.cpu.fuPool.FUList4]
type=FUDesc
children=opList0 opList1
cache_component=false
count=0
eventq_index=0
micro_component=false
opList=system.cpu.fuPool.FUList4.opList0 system.cpu.fuPool.FUList4.opList1

[system.cpu.fuPool.FUList4.opList0]
type=OpDesc
cache_component=false
eventq_index=0
micro_component=false
opClass=MemRead
opLat=1
pipelined=true

[system.cpu.fuPool.FUList4.opList1]
type=OpDesc
cache_component=false
eventq_index=0
micro_component=false
opClass=FloatMemRead
opLat=1
pipelined=true

[system.cpu.fuPool.FUList5]
type=FUDesc
children=opList00 opList01 opList02 opList03 opList04 opList05 opList06 opList07 opList08 opList09 opList10 opList11 opList12 opList13 opList14 opList15 opList16 opList17 opList18 opList19
cache_component=false
count=4
eventq_index=0
micro_component=false
opList=system.cpu.fuPool.FUList5.opList00 system.cpu.fuPool.FUList5.opList01 system.cpu.fuPool.FUList5.opList02 system.cpu.fuPool.FUList5.opList03 system.cpu.fuPool.FUList5.opList04 system.cpu.fuPool.FUList5.opList05 system.cpu.fuPool.FUList5.opList06 system.cpu.fuPool.FUList5.opList07 system.cpu.fuPool.FUList5.opList08 system.cpu.fuPool.FUList5.opList09 system.cpu.fuPool.FUList5.opList10 system.cpu.fuPool.FUList5.opList11 system.cpu.fuPool.FUList5.opList12 system.cpu.fuPool.FUList5.opList13 system.cpu.fuPool.FUList5.opList14 system.cpu.fuPool.FUList5.opList15 system.cpu.fuPool.FUList5.opList16 system.cpu.fuPool.FUList5.opList17 system.cpu.fuPool.FUList5.opList18 system.cpu.fuPool.FUList5.opList19

[system.cpu.fuPool.FUList5.opList00]
type=OpDesc
cache_component=false
eventq_index=0
micro_component=false
opClass=SimdAdd
opLat=1
pipelined=true

[system.cpu.fuPool.FUList5.opList01]
type=OpDesc
cache_component=false
eventq_index=0
micro_component=false
opClass=SimdAddAcc
opLat=1
pipelined=true

[system.cpu.fuPool.FUList5.opList02]
type=OpDesc
cache_component=false
eventq_index=0
micro_component=false
opClass=SimdAlu
opLat=1
pipelined=true

[system.cpu.fuPool.FUList5.opList03]
type=OpDesc
cache_component=false
eventq_index=0
micro_component=false
opClass=SimdCmp
opLat=1
pipelined=true

[system.cpu.fuPool.FUList5.opList04]
type=OpDesc
cache_component=false
eventq_index=0
micro_component=false
opClass=SimdCvt
opLat=1
pipelined=true

[system.cpu.fuPool.FUList5.opList05]
type=OpDesc
cache_component=false
eventq_index=0
micro_component=false
opClass=SimdMisc
opLat=1
pipelined=true

[system.cpu.fuPool.FUList5.opList06]
type=OpDesc
cache_component=false
eventq_index=0
micro_component=false
opClass=SimdMult
opLat=1
pipelined=true

[system.cpu.fuPool.FUList5.opList07]
type=OpDesc
cache_component=false
eventq_index=0
micro_component=false
opClass=SimdMultAcc
opLat=1
pipelined=true

[system.cpu.fuPool.FUList5.opList08]
type=OpDesc
cache_component=false
eventq_index=0
micro_component=false
opClass=SimdShift
opLat=1
pipelined=true

[system.cpu.fuPool.FUList5.opList09]
type=OpDesc
cache_component=false
eventq_index=0
micro_component=false
opClass=SimdShiftAcc
opLat=1
pipelined=true

[system.cpu.fuPool.FUList5.opList10]
type=OpDesc
cache_component=false
eventq_index=0
micro_component=false
opClass=SimdSqrt
opLat=1
pipelined=true

[system.cpu.fuPool.FUList5.opList11]
type=OpDesc
cache_component=false
eventq_index=0
micro_component=false
opClass=SimdFloatAdd
opLat=1
pipelined=true

[system.cpu.fuPool.FUList5.opList12]
type=OpDesc
cache_component=false
eventq_index=0
micro_component=false
opClass=SimdFloatAlu
opLat=1
pipelined=true

[system.cpu.fuPool.FUList5.opList13]
type=OpDesc
cache_component=false
eventq_index=0
micro_component=false
opClass=SimdFloatCmp
opLat=1
pipelined=true

[system.cpu.fuPool.FUList5.opList14]
type=OpDesc
cache_component=false
eventq_index=0
micro_component=false
opClass=SimdFloatCvt
opLat=1
pipelined=true

[system.cpu.fuPool.FUList5.opList15]
type=OpDesc
cache_component=false
eventq_index=0
micro_component=false
opClass=SimdFloatDiv
opLat=1
pipelined=true

[system.cpu.fuPool.FUList5.opList16]
type=OpDesc
cache_component=false
eventq_index=0
micro_component=false
opClass=SimdFloatMisc
opLat=1
pipelined=true

[system.cpu.fuPool.FUList5.opList17]
type=OpDesc
cache_component=false
eventq_index=0
micro_component=false
opClass=SimdFloatMult
opLat=1
pipelined=true

[system.cpu.fuPool.FUList5.opList18]
type=OpDesc
cache_component=false
eventq_index=0
micro_component=false
opClass=SimdFloatMultAcc
opLat=1
pipelined=true

[system.cpu.fuPool.FUList5.opList19]
type=OpDesc
cache_component=false
eventq_index=0
micro_component=false
opClass=SimdFloatSqrt
opLat=1
pipelined=true

[system.cpu.fuPool.FUList6]
type=FUDesc
children=opList0 opList1
cache_component=false
count=0
eventq_index=0
micro_component=false
opList=system.cpu.fuPool.FUList6.opList0 system.cpu.fuPool.FUList6.opList1

[system.cpu.fuPool.FUList6.opList0]
type=OpDesc
cache_component=false
eventq_index=0
micro_component=false
opClass=MemWrite
opLat=1
pipelined=true

[system.cpu.fuPool.FUList6.opList1]
type=OpDesc
cache_component=false
eventq_index=0
micro_component=false
opClass=FloatMemWrite
opLat=1
pipelined=true

[system.cpu.fuPool.FUList7]
type=FUDesc
children=opList0 opList1 opList2 opList3
cache_component=false
count=4
eventq_index=0
micro_component=false
opList=system.cpu.fuPool.FUList7.opList0 system.cpu.fuPool.FUList7.opList1 system.cpu.fuPool.FUList7.opList2 system.cpu.fuPool.FUList7.opList3

[system.cpu.fuPool.FUList7.opList0]
type=OpDesc
cache_component=false
eventq_index=0
micro_component=false
opClass=MemRead
opLat=1
pipelined=true

[system.cpu.fuPool.FUList7.opList1]
type=OpDesc
cache_component=false
eventq_index=0
micro_component=false
opClass=MemWrite
opLat=1
pipelined=true

[system.cpu.fuPool.FUList7.opList2]
type=OpDesc
cache_component=false
eventq_index=0
micro_component=false
opClass=FloatMemRead
opLat=1
pipelined=true

[system.cpu.fuPool.FUList7.opList3]
type=OpDesc
cache_component=false
eventq_index=0
micro_component=false
opClass=FloatMemWrite
opLat=1
pipelined=true

[system.cpu.fuPool.FUList8]
type=FUDesc
children=opList
cache_component=false
count=1
eventq_index=0
micro_component=false
opList=system.cpu.fuPool.FUList8.opList

[system.cpu.fuPool.FUList8.opList]
type=OpDesc
cache_component=false
eventq_index=0
micro_component=false
opClass=IprAccess
opLat=3
pipelined=false

[system.cpu.interrupts]
type=X86LocalApic
cache_component=false
clk_domain=system.cpu.apic_clk_domain
default_p_state=UNDEFINED
eventq_index=0
int_latency=1000
micro_component=false
p_state_clk_gate_bins=20
p_state_clk_gate_max=1000000000000
p_state_clk_gate_min=1000
pio_addr=2305843009213693952
pio_latency=100000
power_model=
system=system
int_master=system.ruby.l1_cntrl0.sequencer.slave[2]
int_slave=system.ruby.l1_cntrl0.sequencer.master[1]
pio=system.ruby.l1_cntrl0.sequencer.master[0]

[system.cpu.isa]
type=X86ISA
cache_component=false
eventq_index=0
micro_component=false

[system.cpu.itb]
type=X86TLB
children=walker
cache_component=false
eventq_index=0
micro_component=false
size=64
walker=system.cpu.itb.walker

[system.cpu.itb.walker]
type=X86PagetableWalker
cache_component=false
clk_domain=system.cpu_clk_domain
default_p_state=UNDEFINED
eventq_index=0
micro_component=false
num_squash_per_cycle=4
p_state_clk_gate_bins=20
p_state_clk_gate_max=1000000000000
p_state_clk_gate_min=1000
power_model=
system=system
port=system.ruby.l1_cntrl0.sequencer.slave[3]

[system.cpu.tracer]
type=ExeTracer
cache_component=false
eventq_index=0
micro_component=false

[system.cpu.workload]
type=Process
cache_component=false
cmd=debug_IS-ST-256MSHR-CT_SEQ-NO_L1I_core78/one/test_case_124_2006691475.out
cwd=/code/revizor-docker/src
drivers=
egid=100
env=
errout=cerr
euid=100
eventq_index=0
executable=debug_IS-ST-256MSHR-CT_SEQ-NO_L1I_core78/one/test_case_124_2006691475.out
gid=100
input=cin
kvmInSE=false
maxStackSize=67108864
micro_component=false
output=cout
pgid=100
pid=100
ppid=0
simpoint=0
system=system
uid=100
useArchPT=false

[system.cpu_clk_domain]
type=SrcClockDomain
cache_component=false
clock=500
domain_id=-1
eventq_index=0
init_perf_level=0
micro_component=false
voltage_domain=system.cpu_voltage_domain

[system.cpu_voltage_domain]
type=VoltageDomain
cache_component=false
eventq_index=0
micro_component=false
voltage=1.0

[system.dvfs_handler]
type=DVFSHandler
cache_component=false
domains=
enable=false
eventq_index=0
micro_component=false
sys_clk_domain=system.clk_domain
transition_latency=100000000

[system.mem_ctrls]
type=DRAMCtrl
IDD0=0.055
IDD02=0.0
IDD2N=0.032
IDD2N2=0.0
IDD2P0=0.0
IDD2P02=0.0
IDD2P1=0.032
IDD2P12=0.0
IDD3N=0.038
IDD3N2=0.0
IDD3P0=0.0
IDD3P02=0.0
IDD3P1=0.038
IDD3P12=0.0
IDD4R=0.157
IDD4R2=0.0
IDD4W=0.125
IDD4W2=0.0
IDD5=0.235
IDD52=0.0
IDD6=0.02
IDD62=0.0
VDD=1.5
VDD2=0.0
activation_limit=4
addr_mapping=RoRaBaCoCh
bank_groups_per_rank=0
banks_per_rank=8
burst_length=8
cache_component=false
channels=1
clk_domain=system.clk_domain
conf_table_reported=true
default_p_state=UNDEFINED
device_bus_width=8
device_rowbuffer_size=1024
device_size=536870912
devices_per_rank=8
dll=true
eventq_index=0
in_addr_map=true
kvm_map=true
max_accesses_per_row=16
mem_sched_policy=frfcfs
micro_component=false
min_writes_per_switch=16
null=false
p_state_clk_gate_bins=20
p_state_clk_gate_max=1000000000000
p_state_clk_gate_min=1000
page_policy=open_adaptive
power_model=
range=0:536870911:5:19:0:0
ranks_per_channel=2
read_buffer_size=32
static_backend_latency=10000
static_frontend_latency=10000
tBURST=5000
tCCD_L=0
tCK=1250
tCL=13750
tCS=2500
tRAS=35000
tRCD=13750
tREFI=7800000
tRFC=260000
tRP=13750
tRRD=6000
tRRD_L=0
tRTP=7500
tRTW=2500
tWR=15000
tWTR=7500
tXAW=30000
tXP=6000
tXPDLL=0
tXS=270000
tXSDLL=0
write_buffer_size=64
write_high_thresh_perc=85
write_low_thresh_perc=50
port=system.ruby.dir_cntrl0.memory

[system.ruby]
type=RubySystem
children=clk_domain dir_cntrl0 l1_cntrl0 l2_cntrl0 memctrl_clk_domain network
access_backing_store=false
all_instructions=false
block_size_bytes=64
cache_component=false
clk_domain=system.ruby.clk_domain
default_p_state=UNDEFINED
eventq_index=0
hot_lines=false
memory_size_bits=48
micro_component=false
num_of_sequencers=1
number_of_virtual_networks=3
p_state_clk_gate_bins=20
p_state_clk_gate_max=1000000000000
p_state_clk_gate_min=1000
phys_mem=Null
power_model=
randomization=false

[system.ruby.clk_domain]
type=SrcClockDomain
cache_component=false
clock=500
domain_id=-1
eventq_index=0
init_perf_level=0
micro_component=false
voltage_domain=system.voltage_domain

[system.ruby.dir_cntrl0]
type=Directory_Controller
children=directory requestToDir responseFromDir responseFromMemory responseToDir
addr_ranges=0:536870911:5:0:0:0
buffer_size=0
cache_component=false
clk_domain=system.ruby.clk_domain
cluster_id=0
default_p_state=UNDEFINED
directory=system.ruby.dir_cntrl0.directory
directory_latency=6
eventq_index=0
micro_component=false
number_of_TBEs=256
p_state_clk_gate_bins=20
p_state_clk_gate_max=1000000000000
p_state_clk_gate_min=1000
power_model=
recycle_latency=10
requestToDir=system.ruby.dir_cntrl0.requestToDir
responseFromDir=system.ruby.dir_cntrl0.responseFromDir
responseFromMemory=system.ruby.dir_cntrl0.responseFromMemory
responseToDir=system.ruby.dir_cntrl0.responseToDir
ruby_system=system.ruby
system=system
to_mem_ctrl_latency=1
transitions_per_cycle=32
version=0
memory=system.mem_ctrls.port

[system.ruby.dir_cntrl0.directory]
type=RubyDirectoryMemory
addr_ranges=0:536870911:5:0:0:0
cache_component=false
eventq_index=0
micro_component=false

[system.ruby.dir_cntrl0.requestToDir]
type=MessageBuffer
buffer_size=0
cache_component=false
eventq_index=0
micro_component=false
ordered=false
randomization=false
slave=system.ruby.network.master[5]

[system.ruby.dir_cntrl0.responseFromDir]
type=MessageBuffer
buffer_size=0
cache_component=false
eventq_index=0
micro_component=false
ordered=false
randomization=false
master=system.ruby.network.slave[6]

[system.ruby.dir_cntrl0.responseFromMemory]
type=MessageBuffer
buffer_size=0
cache_component=false
eventq_index=0
micro_component=false
ordered=false
randomization=false

[system.ruby.dir_cntrl0.responseToDir]
type=MessageBuffer
buffer_size=0
cache_component=false
eventq_index=0
micro_component=false
ordered=false
randomization=false
slave=system.ruby.network.master[6]

[system.ruby.l1_cntrl0]
type=L1Cache_Controller
children=L1Dcache L1Icache mandatoryQueue optionalQueue prefetcher requestFromL1Cache requestToL1Cache responseFromL1Cache responseToL1Cache sequencer unblockFromL1Cache
L1Dcache=system.ruby.l1_cntrl0.L1Dcache
L1Icache=system.ruby.l1_cntrl0.L1Icache
addr_ranges=0:18446744073709551615:0:0:0:0
buffer_size=0
cache_component=false
clk_domain=system.cpu_clk_domain
cluster_id=0
default_p_state=UNDEFINED
enable_prefetch=false
eventq_index=0
l1_request_latency=2
l1_response_latency=2
l2_select_num_bits=0
mandatoryQueue=system.ruby.l1_cntrl0.mandatoryQueue
micro_component=false
number_of_TBEs=256
optionalQueue=system.ruby.l1_cntrl0.optionalQueue
p_state_clk_gate_bins=20
p_state_clk_gate_max=1000000000000
p_state_clk_gate_min=1000
power_model=
prefetcher=system.ruby.l1_cntrl0.prefetcher
recycle_latency=10
requestFromL1Cache=system.ruby.l1_cntrl0.requestFromL1Cache
requestToL1Cache=system.ruby.l1_cntrl0.requestToL1Cache
responseFromL1Cache=system.ruby.l1_cntrl0.responseFromL1Cache
responseToL1Cache=system.ruby.l1_cntrl0.responseToL1Cache
ruby_system=system.ruby
send_evictions=true
sequencer=system.ruby.l1_cntrl0.sequencer
system=system
to_l2_latency=1
transitions_per_cycle=4
unblockFromL1Cache=system.ruby.l1_cntrl0.unblockFromL1Cache
version=0

[system.ruby.l1_cntrl0.L1Dcache]
type=RubyCache
children=replacement_policy
assoc=8
block_size=0
cache_component=true
dataAccessLatency=1
dataArrayBanks=1
eventq_index=0
is_icache=false
micro_component=false
replacement_policy=system.ruby.l1_cntrl0.L1Dcache.replacement_policy
resourceStalls=false
ruby_system=system.ruby
size=32768
start_index_bit=6
tagAccessLatency=1
tagArrayBanks=1

[system.ruby.l1_cntrl0.L1Dcache.replacement_policy]
type=PseudoLRUReplacementPolicy
assoc=8
block_size=64
cache_component=false
eventq_index=0
micro_component=false
size=32768

[system.ruby.l1_cntrl0.L1Icache]
type=RubyCache
children=replacement_policy
assoc=2
block_size=0
cache_component=true
dataAccessLatency=1
dataArrayBanks=1
eventq_index=0
is_icache=true
micro_component=false
replacement_policy=system.ruby.l1_cntrl0.L1Icache.replacement_policy
resourceStalls=false
ruby_system=system.ruby
size=32768
start_index_bit=6
tagAccessLatency=1
tagArrayBanks=1

[system.ruby.l1_cntrl0.L1Icache.replacement_policy]
type=PseudoLRUReplacementPolicy
assoc=2
block_size=64
cache_component=false
eventq_index=0
micro_component=false
size=32768

[system.ruby.l1_cntrl0.mandatoryQueue]
type=MessageBuffer
buffer_size=0
cache_component=false
eventq_index=0
micro_component=false
ordered=false
randomization=false

[system.ruby.l1_cntrl0.optionalQueue]
type=MessageBuffer
buffer_size=0
cache_component=false
eventq_index=0
micro_component=false
ordered=false
randomization=false

[system.ruby.l1_cntrl0.prefetcher]
type=Prefetcher
cache_component=false
cross_page=false
eventq_index=0
micro_component=false
nonunit_filter=8
num_startup_pfs=1
num_streams=4
pf_per_stream=1
sys=system
train_misses=4
unit_filter=8

[system.ruby.l1_cntrl0.requestFromL1Cache]
type=MessageBuffer
buffer_size=0
cache_component=false
eventq_index=0
micro_component=false
ordered=false
randomization=false
master=system.ruby.network.slave[0]

[system.ruby.l1_cntrl0.requestToL1Cache]
type=MessageBuffer
buffer_size=0
cache_component=false
eventq_index=0
micro_component=false
ordered=false
randomization=false
slave=system.ruby.network.master[0]

[system.ruby.l1_cntrl0.responseFromL1Cache]
type=MessageBuffer
buffer_size=0
cache_component=false
eventq_index=0
micro_component=false
ordered=false
randomization=false
master=system.ruby.network.slave[1]

[system.ruby.l1_cntrl0.responseToL1Cache]
type=MessageBuffer
buffer_size=0
cache_component=false
eventq_index=0
micro_component=false
ordered=false
randomization=false
slave=system.ruby.network.master[1]

[system.ruby.l1_cntrl0.sequencer]
type=RubySequencer
cache_component=false
clk_domain=system.cpu_clk_domain
coreid=99
dcache=system.ruby.l1_cntrl0.L1Dcache
dcache_hit_latency=1
deadlock_threshold=500000
default_p_state=UNDEFINED
eventq_index=0
garnet_standalone=false
icache=system.ruby.l1_cntrl0.L1Icache
icache_hit_latency=1
is_cpu_sequencer=true
max_outstanding_requests=16
micro_component=false
no_retry_on_stall=false
p_state_clk_gate_bins=20
p_state_clk_gate_max=1000000000000
p_state_clk_gate_min=1000
power_model=
ruby_system=system.ruby
support_data_reqs=true
support_inst_reqs=true
system=system
using_ruby_tester=false
version=0
master=system.cpu.interrupts.pio system.cpu.interrupts.int_slave
slave=system.cpu.icache_port system.cpu.dcache_port system.cpu.interrupts.int_master system.cpu.itb.walker.port system.cpu.dtb.walker.port

[system.ruby.l1_cntrl0.unblockFromL1Cache]
type=MessageBuffer
buffer_size=0
cache_component=false
eventq_index=0
micro_component=false
ordered=false
randomization=false
master=system.ruby.network.slave[2]

[system.ruby.l2_cntrl0]
type=L2Cache_Controller
children=DirRequestFromL2Cache L1RequestFromL2Cache L1RequestToL2Cache L2cache responseFromL2Cache responseToL2Cache unblockToL2Cache
DirRequestFromL2Cache=system.ruby.l2_cntrl0.DirRequestFromL2Cache
L1RequestFromL2Cache=system.ruby.l2_cntrl0.L1RequestFromL2Cache
L1RequestToL2Cache=system.ruby.l2_cntrl0.L1RequestToL2Cache
L2cache=system.ruby.l2_cntrl0.L2cache
addr_ranges=0:18446744073709551615:0:0:0:0
buffer_size=0
cache_component=false
clk_domain=system.ruby.clk_domain
cluster_id=0
default_p_state=UNDEFINED
eventq_index=0
l2_request_latency=2
l2_response_latency=2
micro_component=false
number_of_TBEs=256
p_state_clk_gate_bins=20
p_state_clk_gate_max=1000000000000
p_state_clk_gate_min=1000
power_model=
recycle_latency=10
responseFromL2Cache=system.ruby.l2_cntrl0.responseFromL2Cache
responseToL2Cache=system.ruby.l2_cntrl0.responseToL2Cache
ruby_system=system.ruby
system=system
to_l1_latency=1
transitions_per_cycle=4
unblockToL2Cache=system.ruby.l2_cntrl0.unblockToL2Cache
version=0

[system.ruby.l2_cntrl0.DirRequestFromL2Cache]
type=MessageBuffer
buffer_size=0
cache_component=false
eventq_index=0
micro_component=false
ordered=false
randomization=false
master=system.ruby.network.slave[3]

[system.ruby.l2_cntrl0.L1RequestFromL2Cache]
type=MessageBuffer
buffer_size=0
cache_component=false
eventq_index=0
micro_component=false
ordered=false
randomization=false
master=system.ruby.network.slave[4]

[system.ruby.l2_cntrl0.L1RequestToL2Cache]
type=MessageBuffer
buffer_size=0
cache_component=false
eventq_index=0
micro_component=false
ordered=false
randomization=false
slave=system.ruby.network.master[3]

[system.ruby.l2_cntrl0.L2cache]
type=RubyCache
children=replacement_policy
assoc=8
block_size=0
cache_component=false
dataAccessLatency=1
dataArrayBanks=1
eventq_index=0
is_icache=false
micro_component=false
replacement_policy=system.ruby.l2_cntrl0.L2cache.replacement_policy
resourceStalls=false
ruby_system=system.ruby
size=2097152
start_index_bit=6
tagAccessLatency=1
tagArrayBanks=1

[system.ruby.l2_cntrl0.L2cache.replacement_policy]
type=PseudoLRUReplacementPolicy
assoc=8
block_size=64
cache_component=false
eventq_index=0
micro_component=false
size=2097152

[system.ruby.l2_cntrl0.responseFromL2Cache]
type=MessageBuffer
buffer_size=0
cache_component=false
eventq_index=0
micro_component=false
ordered=false
randomization=false
master=system.ruby.network.slave[5]

[system.ruby.l2_cntrl0.responseToL2Cache]
type=MessageBuffer
buffer_size=0
cache_component=false
eventq_index=0
micro_component=false
ordered=false
randomization=false
slave=system.ruby.network.master[4]

[system.ruby.l2_cntrl0.unblockToL2Cache]
type=MessageBuffer
buffer_size=0
cache_component=false
eventq_index=0
micro_component=false
ordered=false
randomization=false
slave=system.ruby.network.master[2]

[system.ruby.memctrl_clk_domain]
type=DerivedClockDomain
cache_component=false
clk_divider=3
clk_domain=system.ruby.clk_domain
eventq_index=0
micro_component=false

[system.ruby.network]
type=SimpleNetwork
children=ext_links0 ext_links1 ext_links2 int_link_buffers00 int_link_buffers01 int_link_buffers02 int_link_buffers03 int_link_buffers04 int_link_buffers05 int_link_buffers06 int_link_buffers07 int_link_buffers08 int_link_buffers09 int_link_buffers10 int_link_buffers11 int_link_buffers12 int_link_buffers13 int_link_buffers14 int_link_buffers15 int_link_buffers16 int_link_buffers17 int_link_buffers18 int_link_buffers19 int_link_buffers20 int_link_buffers21 int_link_buffers22 int_link_buffers23 int_link_buffers24 int_link_buffers25 int_link_buffers26 int_link_buffers27 int_link_buffers28 int_link_buffers29 int_link_buffers30 int_link_buffers31 int_link_buffers32 int_link_buffers33 int_link_buffers34 int_link_buffers35 int_links0 int_links1 int_links2 int_links3 int_links4 int_links5 routers0 routers1 routers2 routers3
adaptive_routing=false
buffer_size=0
cache_component=false
clk_domain=system.ruby.clk_domain
control_msg_size=8
default_p_state=UNDEFINED
endpoint_bandwidth=1000
eventq_index=0
ext_links=system.ruby.network.ext_links0 system.ruby.network.ext_links1 system.ruby.network.ext_links2